Circuit: * C:\Users\pavel\OneDrive\Desktop\RLC metr\RLC_idealopamp.asc

i1: both pins shorted together -- ignoring.
c2: Increased Cpar to 1e-14
Direct Newton iteration for .op point succeeded.
.step ltest=0.0001
.step ltest=0.0002
.step ltest=0.0003
.step ltest=0.0004
.step ltest=0.0005

Date: Thu Nov 14 17:36:37 2024
Total elapsed time: 0.533 seconds.

tnom = 27
temp = 27
method = modified trap
totiter = 3471
traniter = 3468
tranpoints = 1735
accept = 1370
rejected = 365
matrix size = 19
fillins = 3
solver = Normal
Avg thread counts: 1.3/1.6/1.6/1.3
Matrix Compiler1: 1.08 KB object code size  0.4/0.2/[0.2]
Matrix Compiler2: 1.73 KB object code size  0.2/0.2/[0.2]

